/*--------------------------------*- C++ -*----------------------------------*\
  =========                 |
  \\      /  F ield         | OpenFOAM: The Open Source CFD Toolbox
   \\    /   O peration     | Website:  https://openfoam.org
    \\  /    A nd           | Version:  dev
     \\/     M anipulation  |
\*---------------------------------------------------------------------------*/
FoamFile
{
    version     2.0;
    format      ascii;
    class       dictionary;
    object      blockMeshDict;
}
// * * * * * * * * * * * * * * * * * * * * * * * * * * * * * * * * * * * * * //

convertToMeters 0.1;

vertices
(
    (0.2 0 0)
    (1.2 0 0)
    (0 0.4 0)
    (0.2 0.4 0)
    (1.2 0.4 0)
    (0 0.6 0)
    (0.2 0.6 0)
    (1.2 0.6 0)
    (0.2 1 0)
    (1.2 1 0)
    (0.2 0 0.1)
    (1.2 0 0.1)
    (0 0.4 0.1)
    (0.2 0.4 0.1)
    (1.2 0.4 0.1)
    (0 0.6 0.1)
    (0.2 0.6 0.1)
    (1.2 0.6 0.1)
    (0.2 1 0.1)
    (1.2 1 0.1)
);

blocks
(
    hex (0 1 4 3 10 11 14 13) (50 20 1) simpleGrading (1 1 1)
    hex (2 3 6 5 12 13 16 15) (10 10 1) simpleGrading (1 1 1)
    hex (3 4 7 6 13 14 17 16) (50 10 1) simpleGrading (1 1 1)
    hex (6 7 9 8 16 17 19 18) (50 20 1) simpleGrading (1 1 1)
);

edges
(
);

boundary
(
    movingWall
    {
        type wall;
        faces
        (
            (2 12 15 5)
        );
    }
    fixedWalls
    {
        type wall;
        faces
        (
            (2 3 13 12)
            (3 0 10 13)
            (0 1 11 10)
            (1 4 14 11)
            (4 7 17 14)
            (7 9 19 17)
            (8 18 19 9)
            (6 16 18 8)
            (5 15 16 6)
        );
    }
    frontAndBack
    {
        type empty;
        faces
        (
            (0 3 4 1)
            (2 5 6 3)
            (3 6 7 4)
            (6 8 9 7)
            (10 13 14 11)
            (12 15 16 13)
            (13 16 17 14)
            (16 18 19 17)
        );
    }
);

mergePatchPairs
(
);

// ************************************************************************* //
